2r2m_docking
                    3D
 Structure written by MMmdl.
 52 53  0  0  1  0            999 V2000
   19.2350  -15.6920   22.6289 C   0  0  0  0  0  0
   17.9433  -15.4290   23.1178 C   0  0  0  0  0  0
   17.1742  -14.3947   22.5403 C   0  0  0  0  0  0
   17.6857  -13.6083   21.4823 C   0  0  0  0  0  0
   19.0028  -13.8662   21.0250 C   0  0  0  0  0  0
   19.7634  -14.8997   21.5970 C   0  0  0  0  0  0
   19.7442  -12.9334   19.7773 Cl  0  0  0  0  0  0
   15.9354  -14.1368   23.0323 F   0  0  0  0  0  0
   16.8141  -12.4847   20.9109 C   0  0  0  0  0  0
   15.4698  -12.9504   20.3280 C   0  0  0  0  0  0
   14.3750  -12.6870   21.0587 N   0  0  0  0  0  0
   15.4380  -13.5254   19.2414 O   0  0  0  0  0  0
   13.0045  -13.0935   20.7574 C   0  0  0  0  0  0
   12.4482  -13.9923   21.8910 C   0  0  0  0  0  0
   12.3359  -13.3293   23.1508 O   0  0  0  0  0  0
   11.3687  -12.3183   23.1252 N   0  0  0  0  0  0
   10.7096  -12.2470   24.3027 C   0  0  0  0  0  0
   10.1707  -13.3311   24.8810 N   0  0  0  0  0  0
   17.3713  -16.1557   24.0919 N   0  0  0  0  0  0
   18.0286  -17.1784   24.9023 C   0  0  0  0  0  0
   18.7655  -16.6021   26.1330 C   0  0  0  0  0  0
   20.1536  -16.0234   25.8533 C   0  0  0  0  0  0
   17.9732  -15.6966   26.7145 F   0  0  0  0  0  0
   18.9129  -17.6048   27.0014 F   0  0  0  0  0  0
   20.3946  -14.6301   25.9082 C   0  0  0  0  0  0
   21.6795  -14.1209   25.6469 C   0  0  0  0  0  0
   22.7378  -14.9889   25.3139 C   0  0  0  0  0  0
   22.5083  -16.3775   25.2841 C   0  0  0  0  0  0
   21.2247  -16.8913   25.5450 C   0  0  0  0  0  0
   19.8376  -16.4899   23.0356 H   0  0  0  0  0  0
   20.7594  -15.0981   21.2432 H   0  0  0  0  0  0
   16.6505  -11.7331   21.6894 H   0  0  0  0  0  0
   17.3322  -11.9513   20.1179 H   0  0  0  0  0  0
   14.5152  -12.2241   21.9440 H   0  0  0  0  0  0
   12.3924  -12.2038   20.6097 H   0  0  0  0  0  0
   12.9607  -13.6458   19.8169 H   0  0  0  0  0  0
   11.4673  -14.3820   21.6047 H   0  0  0  0  0  0
   13.0855  -14.8710   22.0212 H   0  0  0  0  0  0
   11.5801  -11.4781   22.6080 H   0  0  0  0  0  0
    9.5101  -13.2098   25.6491 H   0  0  0  0  0  0
   10.3108  -14.2486   24.4557 H   0  0  0  0  0  0
    9.7347  -10.9258   25.4977 H   0  0  0  0  0  0
   16.5181  -15.7610   24.4935 H   0  0  0  0  0  0
   17.2044  -17.7905   25.2779 H   0  0  0  0  0  0
   18.6547  -17.8545   24.3196 H   0  0  0  0  0  0
   19.6074  -13.9285   26.1577 H   0  0  0  0  0  0
   21.8375  -13.0512   25.7125 H   0  0  0  0  0  0
   23.7334  -14.6026   25.1489 H   0  0  0  0  0  0
   23.3209  -17.0594   25.0820 H   0  0  0  0  0  0
   21.0592  -17.9567   25.5222 H   0  0  0  0  0  0
   10.5711  -11.0530   24.8868 N   0  3  0  0  0  0
   11.0374  -10.2341   24.5352 H   0  0  0  0  0  0
  1  6  2  0  0  0
  1  2  1  0  0  0
  1 30  1  0  0  0
  2 19  1  0  0  0
  2  3  2  0  0  0
  3  4  1  0  0  0
  3  8  1  0  0  0
  4  9  1  0  0  0
  4  5  2  0  0  0
  5  6  1  0  0  0
  5  7  1  0  0  0
  6 31  1  0  0  0
  9 10  1  0  0  0
  9 32  1  0  0  0
  9 33  1  0  0  0
 10 11  1  0  0  0
 10 12  2  0  0  0
 11 13  1  0  0  0
 11 34  1  0  0  0
 13 14  1  0  0  0
 13 35  1  0  0  0
 13 36  1  0  0  0
 14 15  1  0  0  0
 14 37  1  0  0  0
 14 38  1  0  0  0
 15 16  1  0  0  0
 16 17  1  0  0  0
 16 39  1  0  0  0
 17 18  1  0  0  0
 17 51  2  0  0  0
 18 40  1  0  0  0
 18 41  1  0  0  0
 19 20  1  0  0  0
 19 43  1  0  0  0
 20 21  1  0  0  0
 20 44  1  0  0  0
 20 45  1  0  0  0
 21 22  1  0  0  0
 21 23  1  0  0  0
 21 24  1  0  0  0
 22 25  2  0  0  0
 22 29  1  0  0  0
 25 26  1  0  0  0
 25 46  1  0  0  0
 26 27  2  0  0  0
 26 47  1  0  0  0
 27 28  1  0  0  0
 27 48  1  0  0  0
 28 29  2  0  0  0
 28 49  1  0  0  0
 29 50  1  0  0  0
 42 51  1  0  0  0
 51 52  1  0  0  0
M  CHG  1  51   1
M  END
