3ldx_referencia
 OpenBabel08061908383D

 54 55  0  0  0  0  0  0  0  0999 V2000
   19.0669  -13.1037   18.9909 H   0  0  0  0  0  0  0  0  0  0  0  0
   19.7621  -13.3249   19.8073 C   0  0  0  0  0  0  0  0  0  0  0  0
   20.2097  -12.3894   20.1571 H   0  0  0  0  0  0  0  0  0  0  0  0
   20.5699  -13.9294   19.3837 H   0  0  0  0  0  0  0  0  0  0  0  0
   19.0656  -14.0400   20.9303 C   0  0  0  0  0  0  0  0  0  0  0  0
   19.4990  -15.2317   21.3551 C   0  0  0  0  0  0  0  0  0  0  0  0
   20.3633  -15.6893   20.8860 H   0  0  0  0  0  0  0  0  0  0  0  0
   18.9476  -15.9792   22.3569 N   0  0  0  0  0  0  0  0  0  0  0  0
   17.9099  -15.4898   22.9676 C   0  0  0  0  0  0  0  0  0  0  0  0
   17.3479  -14.1271   22.5910 C   0  0  0  0  0  0  0  0  0  0  0  0
   16.3861  -13.7235   23.2346 O   0  0  0  0  0  0  0  0  0  0  0  0
   17.9676  -13.4704   21.5413 N   0  0  0  0  0  0  0  0  0  0  0  0
   17.4266  -12.1609   21.1580 C   0  0  0  0  0  0  0  0  0  0  0  0
   17.2798  -11.5698   22.0695 H   0  0  0  0  0  0  0  0  0  0  0  0
   18.0994  -11.6057   20.5000 H   0  0  0  0  0  0  0  0  0  0  0  0
   16.0900  -12.3539   20.4636 C   0  0  0  0  0  0  0  0  0  0  0  0
   15.8101  -13.3583   19.8228 O   0  0  0  0  0  0  0  0  0  0  0  0
   15.2495  -11.2694   20.6338 N   0  0  0  0  0  0  0  0  0  0  0  0
   15.6080  -10.4290   21.0768 H   0  0  0  0  0  0  0  0  0  0  0  0
   13.8795  -11.2584   20.1541 C   0  0  0  0  0  0  0  0  0  0  0  0
   13.8660  -10.6821   19.2241 H   0  0  0  0  0  0  0  0  0  0  0  0
   13.5708  -12.2850   19.9321 H   0  0  0  0  0  0  0  0  0  0  0  0
   12.9477  -10.6323   21.1802 C   0  0  0  0  0  0  0  0  0  0  0  0
   13.2912   -9.6256   21.4448 H   0  0  0  0  0  0  0  0  0  0  0  0
   11.9322  -10.5650   20.7754 H   0  0  0  0  0  0  0  0  0  0  0  0
   12.9276  -11.4556   22.3530 O   0  0  0  0  0  0  0  0  0  0  0  0
   12.1784  -10.8170   23.3023 N   0  0  0  0  0  0  0  0  0  0  0  0
   12.3369   -9.8310   23.4927 H   0  0  0  0  0  0  0  0  0  0  0  0
   11.2376  -11.5078   24.0378 C   0  0  0  0  0  0  0  0  0  0  0  0
   11.0481  -12.8514   23.8443 N   0  0  0  0  0  0  0  0  0  0  0  0
   11.6084  -13.3526   23.1612 H   0  0  0  0  0  0  0  0  0  0  0  0
   10.3612  -13.3706   24.3813 H   0  0  0  0  0  0  0  0  0  0  0  0
   10.4814  -10.8470   24.9704 N   0  0  0  0  0  0  0  0  0  0  0  0
    9.7845  -11.3400   25.5201 H   0  0  0  0  0  0  0  0  0  0  0  0
   10.5996   -9.8518   25.1332 H   0  0  0  0  0  0  0  0  0  0  0  0
   17.2427  -16.1375   23.9915 N   0  0  0  0  0  0  0  0  0  0  0  0
   16.4253  -15.6852   24.4009 H   0  0  0  0  0  0  0  0  0  0  0  0
   17.6952  -17.3751   24.6271 C   0  0  0  0  0  0  0  0  0  0  0  0
   16.8161  -17.9999   24.8117 H   0  0  0  0  0  0  0  0  0  0  0  0
   18.3382  -17.9525   23.9546 H   0  0  0  0  0  0  0  0  0  0  0  0
   18.3963  -17.1041   25.9646 C   0  0  0  0  0  0  0  0  0  0  0  0
   17.4787  -16.5582   26.8135 F   0  0  0  0  0  0  0  0  0  0  0  0
   19.6276  -16.2418   25.8177 C   0  0  0  0  0  0  0  0  0  0  0  0
   19.6021  -14.8970   26.1724 C   0  0  0  0  0  0  0  0  0  0  0  0
   18.6951  -14.4495   26.5678 H   0  0  0  0  0  0  0  0  0  0  0  0
   20.7244  -14.1054   26.0186 C   0  0  0  0  0  0  0  0  0  0  0  0
   20.6894  -13.0565   26.2953 H   0  0  0  0  0  0  0  0  0  0  0  0
   21.8890  -14.6442   25.5097 C   0  0  0  0  0  0  0  0  0  0  0  0
   22.7692  -14.0215   25.3871 H   0  0  0  0  0  0  0  0  0  0  0  0
   21.9297  -15.9784   25.1573 C   0  0  0  0  0  0  0  0  0  0  0  0
   22.8440  -16.4042   24.7565 H   0  0  0  0  0  0  0  0  0  0  0  0
   20.8092  -16.7726   25.3117 C   0  0  0  0  0  0  0  0  0  0  0  0
   20.8621  -17.8190   25.0261 H   0  0  0  0  0  0  0  0  0  0  0  0
   18.6988  -18.3133   26.5150 F   0  0  0  0  0  0  0  0  0  0  0  0
  1  2  1  0  0  0  0
  2  3  1  0  0  0  0
  2  4  1  0  0  0  0
  2  5  1  0  0  0  0
  5  6  2  0  0  0  0
  5 12  1  0  0  0  0
  6  7  1  0  0  0  0
  6  8  1  0  0  0  0
  8  9  2  0  0  0  0
  9 10  1  0  0  0  0
  9 36  1  0  0  0  0
 10 11  2  0  0  0  0
 10 12  1  0  0  0  0
 12 13  1  0  0  0  0
 13 14  1  0  0  0  0
 13 15  1  0  0  0  0
 13 16  1  0  0  0  0
 16 17  2  0  0  0  0
 16 18  1  0  0  0  0
 18 19  1  0  0  0  0
 18 20  1  0  0  0  0
 20 21  1  0  0  0  0
 20 22  1  0  0  0  0
 20 23  1  0  0  0  0
 23 24  1  0  0  0  0
 23 25  1  0  0  0  0
 23 26  1  0  0  0  0
 26 27  1  0  0  0  0
 27 28  1  0  0  0  0
 27 29  1  0  0  0  0
 29 30  1  0  0  0  0
 29 33  2  0  0  0  0
 30 31  1  0  0  0  0
 30 32  1  0  0  0  0
 33 34  1  0  0  0  0
 33 35  1  0  0  0  0
 36 37  1  0  0  0  0
 36 38  1  0  0  0  0
 38 39  1  0  0  0  0
 38 40  1  0  0  0  0
 38 41  1  0  0  0  0
 41 42  1  0  0  0  0
 41 43  1  0  0  0  0
 41 54  1  0  0  0  0
 43 44  1  0  0  0  0
 43 52  2  0  0  0  0
 44 45  1  0  0  0  0
 44 46  2  0  0  0  0
 46 47  1  0  0  0  0
 46 48  1  0  0  0  0
 48 49  1  0  0  0  0
 48 50  2  0  0  0  0
 50 51  1  0  0  0  0
 50 52  1  0  0  0  0
 52 53  1  0  0  0  0
M  END
