D0W_From_6f9r.pdb
 OpenBabel06071913173D

 68 69  0  0  1  0  0  0  0  0999 V2000
   -7.8680  -17.7550  -26.1640 C   0  0  0  0  0  0  0  0  0  0  0  0
   -8.1910  -16.9320  -26.5620 H   0  0  0  0  0  0  0  0  0  0  0  0
   -8.6100  -18.2370  -25.7680 H   0  0  0  0  0  0  0  0  0  0  0  0
   -7.4550  -18.3050  -26.8490 H   0  0  0  0  0  0  0  0  0  0  0  0
   -6.8360  -17.4280  -25.0810 C   0  0  0  0  0  0  0  0  0  0  0  0
   -6.5980  -16.3030  -24.7890 O   0  0  0  0  0  0  0  0  0  0  0  0
   -6.1470  -18.5110  -24.4040 N   0  0  0  0  0  0  0  0  0  0  0  0
   -6.3180  -19.3260  -24.6190 H   0  0  0  0  0  0  0  0  0  0  0  0
   -5.1580  -18.2270  -23.3830 C   0  0  1  0  0  0  0  0  0  0  0  0
   -5.5310  -17.6380  -22.7080 H   0  0  0  0  0  0  0  0  0  0  0  0
   -4.7100  -19.5450  -22.7480 C   0  0  0  0  0  0  0  0  0  0  0  0
   -3.9650  -19.3690  -22.1510 H   0  0  0  0  0  0  0  0  0  0  0  0
   -4.4150  -20.1470  -23.4500 H   0  0  0  0  0  0  0  0  0  0  0  0
   -5.8270  -20.2170  -21.9580 C   0  0  0  0  0  0  0  0  0  0  0  0
   -6.1010  -21.4310  -22.1670 O   0  0  0  0  0  0  0  0  0  0  0  0
   -6.4650  -19.5520  -21.1010 O   0  0  0  0  0  0  0  0  0  0  0  0
   -3.9550  -17.5650  -24.0550 C   0  0  0  0  0  0  0  0  0  0  0  0
   -3.4910  -18.0960  -25.0010 O   0  0  0  0  0  0  0  0  0  0  0  0
   -3.3600  -16.3240  -23.5600 N   0  0  0  0  0  0  0  0  0  0  0  0
   -3.6910  -15.9270  -22.8730 H   0  0  0  0  0  0  0  0  0  0  0  0
   -2.2240  -15.7530  -24.2600 C   0  0  0  0  0  0  0  0  0  0  0  0
   -2.0400  -16.2860  -25.0500 H   0  0  0  0  0  0  0  0  0  0  0  0
   -2.4450  -14.8500  -24.5340 H   0  0  0  0  0  0  0  0  0  0  0  0
   -0.9640  -15.7150  -23.3790 C   0  0  2  0  0  0  0  0  0  0  0  0
   -1.0840  -15.0670  -22.6670 H   0  0  0  0  0  0  0  0  0  0  0  0
    0.1750  -15.2680  -24.2960 C   0  0  0  0  0  0  0  0  0  0  0  0
    0.2480  -15.9080  -25.0220 H   0  0  0  0  0  0  0  0  0  0  0  0
   -0.0630  -14.4060  -24.6730 H   0  0  0  0  0  0  0  0  0  0  0  0
    1.5510  -15.1360  -23.6360 C   0  0  0  0  0  0  0  0  0  0  0  0
    2.5190  -14.4600  -24.7460 C   0  0  0  0  0  0  0  0  0  0  0  0
    2.8720  -13.6190  -24.4170 H   0  0  0  0  0  0  0  0  0  0  0  0
    2.0360  -14.3270  -25.5760 H   0  0  0  0  0  0  0  0  0  0  0  0
    3.6890  -15.4970  -24.9540 C   0  0  0  0  0  0  0  0  0  0  0  0
    4.5350  -15.0310  -25.0350 H   0  0  0  0  0  0  0  0  0  0  0  0
    3.5210  -16.0320  -25.7460 H   0  0  0  0  0  0  0  0  0  0  0  0
    3.7010  -16.3140  -23.8220 C   0  0  0  0  0  0  0  0  0  0  0  0
    4.0150  -17.2020  -24.0510 H   0  0  0  0  0  0  0  0  0  0  0  0
    4.2550  -15.9200  -23.1300 H   0  0  0  0  0  0  0  0  0  0  0  0
    2.1090  -16.3730  -23.3270 C   0  0  0  0  0  0  0  0  0  0  0  0
    1.6390  -17.0760  -23.8030 H   0  0  0  0  0  0  0  0  0  0  0  0
    2.0650  -16.5250  -22.3700 H   0  0  0  0  0  0  0  0  0  0  0  0
    1.5850  -14.1190  -22.4810 C   0  0  0  0  0  0  0  0  0  0  0  0
    0.8560  -13.1660  -22.4790 O   0  0  0  0  0  0  0  0  0  0  0  0
    2.5520  -14.3330  -21.4580 N   0  0  0  0  0  0  0  0  0  0  0  0
    3.0820  -15.0080  -21.5120 H   0  0  0  0  0  0  0  0  0  0  0  0
    2.7140  -13.3860  -20.3710 C   0  0  1  0  0  0  0  0  0  0  0  0
    1.8470  -13.1690  -19.9930 H   0  0  0  0  0  0  0  0  0  0  0  0
    3.6360  -13.9110  -19.2750 C   0  0  0  0  0  0  0  0  0  0  0  0
    3.0860  -14.3010  -18.5770 H   0  0  0  0  0  0  0  0  0  0  0  0
    4.1180  -13.1580  -18.8970 H   0  0  0  0  0  0  0  0  0  0  0  0
    4.6610  -14.9610  -19.7220 C   0  0  0  0  0  0  0  0  0  0  0  0
    4.3220  -16.2950  -19.6690 C   0  0  0  0  0  0  0  0  0  0  0  0
    3.4790  -16.5510  -19.3720 H   0  0  0  0  0  0  0  0  0  0  0  0
    5.2390  -17.2510  -20.0680 C   0  0  0  0  0  0  0  0  0  0  0  0
    5.0110  -18.1520  -20.0320 H   0  0  0  0  0  0  0  0  0  0  0  0
    6.4960  -16.8770  -20.5110 C   0  0  0  0  0  0  0  0  0  0  0  0
    6.8480  -15.5320  -20.5590 C   0  0  0  0  0  0  0  0  0  0  0  0
    7.6900  -15.2780  -20.8610 H   0  0  0  0  0  0  0  0  0  0  0  0
    5.9190  -14.5720  -20.1690 C   0  0  0  0  0  0  0  0  0  0  0  0
    6.1440  -13.6700  -20.1950 H   0  0  0  0  0  0  0  0  0  0  0  0
    7.3970  -17.8830  -20.8990 O   0  0  0  0  0  0  0  0  0  0  0  0
    7.4370  -18.4770  -20.2920 H   0  0  0  0  0  0  0  0  0  0  0  0
    3.3180  -12.1490  -21.0110 C   0  0  0  0  0  0  0  0  0  0  0  0
    3.9660  -12.2470  -22.0980 O   0  0  0  0  0  0  0  0  0  0  0  0
    3.1730  -11.0280  -20.4590 O   0  0  0  0  0  0  0  0  0  0  0  0
   -0.6880  -17.0940  -22.7780 C   0  0  0  0  0  0  0  0  0  0  0  0
   -0.5450  -18.1260  -23.4960 O   0  0  0  0  0  0  0  0  0  0  0  0
   -0.5980  -17.2380  -21.5330 O   0  0  0  0  0  0  0  0  0  0  0  0
  1  3  1  0  0  0  0
  1  5  1  0  0  0  0
  2  1  1  0  0  0  0
  4  1  1  0  0  0  0
  5  6  2  0  0  0  0
  5  7  1  0  0  0  0
  7  9  1  0  0  0  0
  8  7  1  0  0  0  0
  9 11  1  0  0  0  0
  9 10  1  1  0  0  0
 11 12  1  0  0  0  0
 11 14  1  0  0  0  0
 13 11  1  0  0  0  0
 14 16  1  0  0  0  0
 15 14  2  0  0  0  0
 17 19  1  0  0  0  0
 17  9  1  0  0  0  0
 18 17  2  0  0  0  0
 19 20  1  0  0  0  0
 21 19  1  0  0  0  0
 21 24  1  0  0  0  0
 22 21  1  0  0  0  0
 23 21  1  0  0  0  0
 24 66  1  0  0  0  0
 24 25  1  1  0  0  0
 26 29  1  0  0  0  0
 26 24  1  0  0  0  0
 27 26  1  0  0  0  0
 28 26  1  0  0  0  0
 29 39  1  0  0  0  0
 29 42  1  0  0  0  0
 30 31  1  0  0  0  0
 30 29  1  0  0  0  0
 32 30  1  0  0  0  0
 33 30  1  0  0  0  0
 33 36  1  0  0  0  0
 34 33  1  0  0  0  0
 35 33  1  0  0  0  0
 36 39  1  0  0  0  0
 36 38  1  0  0  0  0
 37 36  1  0  0  0  0
 39 41  1  0  0  0  0
 40 39  1  0  0  0  0
 42 43  2  0  0  0  0
 42 44  1  0  0  0  0
 44 46  1  0  0  0  0
 45 44  1  0  0  0  0
 46 47  1  1  0  0  0
 46 48  1  0  0  0  0
 48 50  1  0  0  0  0
 48 49  1  0  0  0  0
 51 52  1  0  0  0  0
 51 48  1  0  0  0  0
 52 53  1  0  0  0  0
 54 55  1  0  0  0  0
 54 52  2  0  0  0  0
 56 54  1  0  0  0  0
 57 56  2  0  0  0  0
 57 59  1  0  0  0  0
 58 57  1  0  0  0  0
 59 51  2  0  0  0  0
 60 59  1  0  0  0  0
 61 56  1  0  0  0  0
 61 62  1  0  0  0  0
 63 65  1  0  0  0  0
 63 46  1  0  0  0  0
 64 63  2  0  0  0  0
 66 68  1  0  0  0  0
 67 66  2  0  0  0  0
M  END
