SAG.pdb
 OpenBabel07131915183D

 22 23  0  0  1  0  0  0  0  0999 V2000
   47.0930  161.5680   31.7670 F   0  0  0  0  0  0  0  0  0  0  0  0
   48.3720  161.8280   31.5620 C   0  0  0  0  0  0  0  0  0  0  0  0
   49.0930  161.0820   30.7000 C   0  0  0  0  0  0  0  0  0  0  0  0
   48.9590  162.8430   32.2220 C   0  0  0  0  0  0  0  0  0  0  0  0
   50.2550  163.1130   32.0240 C   0  0  0  0  0  0  0  0  0  0  0  0
   50.9740  162.3800   31.1650 C   0  0  0  0  0  0  0  0  0  0  0  0
   50.3980  161.3580   30.5000 C   0  0  0  0  0  0  0  0  0  0  0  0
   51.2360  160.5330   29.5370 C   0  0  0  0  0  0  0  0  0  0  0  0
   50.9830  159.1320   29.7270 O   0  0  0  0  0  0  0  0  0  0  0  0
   51.4630  158.1390   28.8850 C   0  0  0  0  0  0  0  0  0  0  0  0
   52.4150  158.3770   27.8820 C   0  0  0  0  0  0  0  0  0  0  0  0
   52.8570  157.3310   27.0540 C   0  0  0  0  0  0  0  0  0  0  0  0
   50.9710  156.8470   29.0470 C   0  0  0  0  0  0  0  0  0  0  0  0
   51.4170  155.8070   28.2280 C   0  0  0  0  0  0  0  0  0  0  0  0
   52.3610  156.0260   27.2230 C   0  0  0  0  0  0  0  0  0  0  0  0
   52.7260  154.9960   26.5010 C   0  0  0  0  0  0  0  0  0  0  0  0
   53.6010  155.1680   25.7380 N   0  0  0  0  0  0  0  0  0  0  0  0
   53.8650  154.1930   24.6900 C   0  0  1  0  0  0  0  0  0  0  0  0
   54.0380  154.8900   23.3430 C   0  0  0  0  0  0  0  0  0  0  0  0
   55.1090  153.3960   24.9680 C   0  0  0  0  0  0  0  0  0  0  0  0
   55.1770  152.2350   24.5810 O   0  0  0  0  0  0  0  0  0  0  0  0
   56.1200  153.9760   25.6210 N   0  0  0  0  0  0  0  0  0  0  0  0
  2  1  1  0  0  0  0
  2  4  2  0  0  0  0
  3  2  1  0  0  0  0
  5  4  1  0  0  0  0
  6  5  2  0  0  0  0
  7  3  2  0  0  0  0
  7  6  1  0  0  0  0
  8  9  1  0  0  0  0
  8  7  1  0  0  0  0
 10 13  1  0  0  0  0
 10  9  1  0  0  0  0
 11 10  2  0  0  0  0
 12 15  2  0  0  0  0
 12 11  1  0  0  0  0
 14 13  2  0  0  0  0
 15 14  1  0  0  0  0
 16 15  1  0  0  0  0
 17 16  2  0  0  0  0
 18 19  1  6  0  0  0
 18 20  1  0  0  0  0
 18 17  1  0  0  0  0
 20 22  1  0  0  0  0
 21 20  2  0  0  0  0
M  END
